Circuit: * C:\Users\Gosho\Desktop\GitHub\8-bit-Computer\LTSpice Drafts\Capacitor_Discharging\Capacitors.asc

Warning: Multiple definitions of model "2scr375p" Type: BJT
Warning: Multiple definitions of model "bc857b" Type: BJT
Warning: Multiple definitions of model "bc847c" Type: BJT
Warning: Multiple definitions of model "bc847b" Type: BJT
WARNING: Node NC_02 is floating.
WARNING: Node NC_03 is floating.
WARNING: Node NC_05 is floating.
WARNING: Node NC_07 is floating.
WARNING: Node NC_10 is floating.

WARNING: Less than two connections to node NC_01.  This node is used by S1.
WARNING: Less than two connections to node NC_02.  This node is used by C5.
WARNING: Less than two connections to node NC_03.  This node is used by C5.
WARNING: Less than two connections to node NC_04.  This node is used by R2.
WARNING: Less than two connections to node NC_05.  This node is used by R2.
WARNING: Less than two connections to node NC_06.  This node is used by R3.
WARNING: Less than two connections to node NC_07.  This node is used by R3.
WARNING: Less than two connections to node NC_08.  This node is used by Q3.
WARNING: Less than two connections to node NC_09.  This node is used by Q3.
WARNING: Less than two connections to node NC_10.  This node is used by Q3.
WARNING: Less than two connections to node NC_11.  This node is used by Q2.
Direct Newton iteration for .op point succeeded.

Date: Mon May 16 21:51:52 2022
Total elapsed time: 0.050 seconds.

tnom = 27
temp = 27
method = modified trap
totiter = 2257
traniter = 2228
tranpoints = 1114
accept = 1112
rejected = 2
matrix size = 35
fillins = 0
solver = Normal
Matrix Compiler1: 1.96 KB object code size  0.3/0.2/[0.1]
Matrix Compiler2: off  [0.2]/0.3/0.2

