Circuit: * C:\Users\Gosho\Desktop\GitHub\8-bit-Computer\LTSpice Drafts\Capacitor_Discharging\Draft2.asc

C1: Increased Cpar to 1e-010
Direct Newton iteration for .op point succeeded.

Date: Sun May 15 19:39:24 2022
Total elapsed time: 0.038 seconds.

tnom = 27
temp = 27
method = modified trap
totiter = 2097
traniter = 2094
tranpoints = 1048
accept = 1048
rejected = 0
matrix size = 3
fillins = 0
solver = Normal
Matrix Compiler1: 86 bytes object code size  0.0/0.0/[0.0]
Matrix Compiler2: 163 bytes object code size  0.0/0.0/[0.0]

