Circuit: * C:\Users\Gosho\Desktop\GitHub\8-bit-Computer\LTSpice Drafts\Capacitor_Charging\Project.asc

WARNING: Less than two connections to node NC_01.  This node is used by D1.
Direct Newton iteration for .op point succeeded.

Date: Fri May 13 04:39:36 2022
Total elapsed time: 0.036 seconds.

tnom = 27
temp = 27
method = modified trap
totiter = 2118
traniter = 2096
tranpoints = 1049
accept = 1049
rejected = 0
matrix size = 5
fillins = 0
solver = Normal
Matrix Compiler1:       6 opcodes  0.0/[0.0]/0.0
Matrix Compiler2: 293 bytes object code size  0.0/0.1/[0.0]

